Slack Bus analysis 2 modified/Slack Bus analysis 2 modified/30 BUS system/ieee30 Single slack BUS.txt
                                PTI INTERACTIVE POWER SYSTEM SIMULATOR--PSS(R)E Xplore SUN, FEB 28 2016  23:05
                         08/20/93 UW ARCHIVE           100.0  1961 W IEEE 30 BUS TES     %MVA FOR TRANSFORMERS
                                                                                         %MVA FOR NON-TRANSFORMER BRANCHES

X------- FROM BUS ------X AREA  VOLT            GEN    LOAD    SHUNT  X---------- TO BUS ----------X                        TRANSFORMER     RATING
  BUS# X-- NAME --X BASKV ZONE  PU/KV  ANGLE  MW/MVAR MW/MVAR MW/MVAR   BUS# X-- NAME --X BASKV AREA CKT    MW     MVAR    RATIO   ANGLE   %  SET A

     1 GLEN LYN    132.00    1 1.0600    0.0   260.9      0.0     0.0 -----------------------------------------------------------------------------
                             1 139.92          -16.8L     0.0     0.0      2 CLAYTOR     132.00    1  1    173.2   -21.3                  134   130
                                                                           3 KUMIS       132.00    1  1     87.7     4.5                   68   130
     2 CLAYTOR     132.00    1 1.0431   -5.4    40.0     21.7     0.0 -----------------------------------------------------------------------------
                             1 137.69           50.0H    12.7     0.0      1 GLEN LYN    132.00    1  1   -168.0    31.0                  131   130
                                                                           4 HANCOCK     132.00    1  1     43.6     4.0                   67    65
                                                                           5 FIELDALE    132.00    1  1     82.4     1.8                   63   130
                                                                           6 ROANOKE     132.00    1  1     60.3     0.5                   93    65
     3 KUMIS       132.00    1 1.0207   -7.5     0.0      2.4     0.0 -----------------------------------------------------------------------------
                             1 134.74            0.0      1.2     0.0      1 GLEN LYN    132.00    1  1    -84.6     2.4                   65   130
                                                                           4 HANCOCK     132.00    1  1     82.2    -3.6                   63   130
     4 HANCOCK     132.00    1 1.0118   -9.3     0.0      7.6     0.0 -----------------------------------------------------------------------------
                             1 133.55            0.0      1.6     0.0      2 CLAYTOR     132.00    1  1    -42.6    -4.7                   66    65
                                                                           3 KUMIS       132.00    1  1    -81.4     5.2                   63   130
                                                                           6 ROANOKE     132.00    1  1     72.2   -16.3                   82    90
                                                                          12 HANCOCK     33.000    1  1     44.2    14.3  0.932LK          71    65
     5 FIELDALE    132.00    1 1.0100  -14.2     0.0     94.2     0.0 -----------------------------------------------------------------------------
                             1 133.32           36.8R    19.0     0.0      2 CLAYTOR     132.00    1  1    -79.4     6.2                   61   130
                                                                           7 BLAINE      132.00    1  1    -14.8    11.7                   27    70
     6 ROANOKE     132.00    1 1.0103  -11.1     0.0      0.0     0.0 -----------------------------------------------------------------------------
                             1 133.35            0.0      0.0     0.0      2 CLAYTOR     132.00    1  1    -58.4     1.5                   90    65
                                                                           4 HANCOCK     132.00    1  1    -71.5    17.6                   82    90
                                                                           7 BLAINE      132.00    1  1     38.1    -3.0                   29   130
                                                                           8 REUSENS     132.00    1  1     29.6    -8.1                   96    32
                                                                           9 ROANOKE     1.0000    1  1     27.7    -8.2  0.978LK          44    65
                                                                          10 ROANOKE     33.000    1  1     15.8     0.2  0.969LK          49    32
                                                                          28 CLOVERDL    132.00    1  1     18.7    -0.0
     7 BLAINE      132.00    1 1.0024  -12.9     0.0     22.8     0.0 -----------------------------------------------------------------------------
                             1 132.31            0.0     10.9     0.0      5 FIELDALE    132.00    1  1     14.9   -13.3                   29    70
                                                                           6 ROANOKE     132.00    1  1    -37.7     2.4                   29   130
     8 REUSENS     132.00    1 1.0100  -11.8     0.0     30.0     0.0 -----------------------------------------------------------------------------
                             1 133.32           37.1R    30.0     0.0      6 ROANOKE     132.00    1  1    -29.5     7.5                   95    32
                                                                          28 CLOVERDL    132.00    1  1     -0.5    -0.4
     9 ROANOKE     1.0000    1 1.0509  -14.1     0.0      0.0     0.0 -----------------------------------------------------------------------------
                             1 1.0509            0.0      0.0     0.0      6 ROANOKE     132.00    1  1    -27.7     9.8  1.000UN          45    65
                                                                          10 ROANOKE     33.000    1  1     27.7     5.9
                                                                          11 ROANOKE     11.000    1  1      0.0   -15.7                   24    65
    10 ROANOKE     33.000    1 1.0451  -15.7     0.0      5.8     0.0 -----------------------------------------------------------------------------
                             1 34.489            0.0      2.0   -20.8      6 ROANOKE     132.00    1  1    -15.8     1.1  1.000UN          50    32
                                                                           9 ROANOKE     1.0000    1  1    -27.7    -5.1
                                                                          17 BUS 17      33.000    1  1      5.3     4.4
                                                                          20 BUS 20      33.000    1  1      9.0     3.7                   30    32
                                                                          21 BUS 21      33.000    1  1     15.8    10.0
                                                                          22 BUS 22      33.000    1  1      7.6     4.6
    11 ROANOKE     11.000    1 1.0820  -14.1     0.0      0.0     0.0 -----------------------------------------------------------------------------
                             1 11.902           16.2R     0.0     0.0      9 ROANOKE     1.0000    1  1     -0.0    16.2                   25    65

    12 HANCOCK     33.000    1 1.0571  -14.9     0.0     11.2     0.0 -----------------------------------------------------------------------------
                             1 34.885            0.0      7.5     0.0      4 HANCOCK     132.00    1  1    -44.2    -9.6  1.000UN          70    65
                                                                          13 HANCOCK     11.000    1  1     -0.0   -10.5                   16    65
                                                                          14 BUS 14      33.000    1  1      7.9     2.4
                                                                          15 BUS 15      33.000    1  1     17.9     6.8                   60    32
                                                                          16 BUS 16      33.000    1  1      7.2     3.4                   50    16                                PTI INTERACTIVE POWER SYSTEM SIMULATOR--PSS(R)E Xplore SUN, FEB 28 2016  23:05
                         08/20/93 UW ARCHIVE           100.0  1961 W IEEE 30 BUS TES     %MVA FOR TRANSFORMERS
                                                                                         %MVA FOR NON-TRANSFORMER BRANCHES

X------- FROM BUS ------X AREA  VOLT            GEN    LOAD    SHUNT  X---------- TO BUS ----------X                        TRANSFORMER     RATING
  BUS# X-- NAME --X BASKV ZONE  PU/KV  ANGLE  MW/MVAR MW/MVAR MW/MVAR   BUS# X-- NAME --X BASKV AREA CKT    MW     MVAR    RATIO   ANGLE   %  SET A

    13 HANCOCK     11.000    1 1.0710  -14.9     0.0      0.0     0.0 -----------------------------------------------------------------------------
                             1 11.781           10.6R     0.0     0.0     12 HANCOCK     33.000    1  1      0.0    10.6                   16    65

    14 BUS 14      33.000    1 1.0423  -15.8     0.0      6.2     0.0 -----------------------------------------------------------------------------
                             1 34.395            0.0      1.6     0.0     12 HANCOCK     33.000    1  1     -7.8    -2.2
                                                                          15 BUS 15      33.000    1  1      1.6     0.6                   11    16
    15 BUS 15      33.000    1 1.0377  -15.9     0.0      8.2     0.0 -----------------------------------------------------------------------------
                             1 34.244            0.0      2.5     0.0     12 HANCOCK     33.000    1  1    -17.7    -6.4                   59    32
                                                                          14 BUS 14      33.000    1  1     -1.6    -0.6                   11    16
                                                                          18 BUS 18      33.000    1  1      6.0     1.6                   39    16
                                                                          23 BUS 23      33.000    1  1      5.0     2.9
    16 BUS 16      33.000    1 1.0444  -15.5     0.0      3.5     0.0 -----------------------------------------------------------------------------
                             1 34.465            0.0      1.8     0.0     12 HANCOCK     33.000    1  1     -7.2    -3.2                   49    16
                                                                          17 BUS 17      33.000    1  1      3.7     1.4                   25    16
    17 BUS 17      33.000    1 1.0399  -15.9     0.0      9.0     0.0 -----------------------------------------------------------------------------
                             1 34.317            0.0      5.8     0.0     10 ROANOKE     33.000    1  1     -5.3    -4.4
                                                                          16 BUS 16      33.000    1  1     -3.7    -1.4                   25    16
    18 BUS 18      33.000    1 1.0282  -16.5     0.0      3.2     0.0 -----------------------------------------------------------------------------
                             1 33.929            0.0      0.9     0.0     15 BUS 15      33.000    1  1     -6.0    -1.5                   39    16
                                                                          19 BUS 19      33.000    1  1      2.8     0.6                   18    16
    19 BUS 19      33.000    1 1.0257  -16.7     0.0      9.5     0.0 -----------------------------------------------------------------------------
                             1 33.847            0.0      3.4     0.0     18 BUS 18      33.000    1  1     -2.8    -0.6                   18    16
                                                                          20 BUS 20      33.000    1  1     -6.7    -2.8                   46    16
    20 BUS 20      33.000    1 1.0297  -16.5     0.0      2.2     0.0 -----------------------------------------------------------------------------
                             1 33.981            0.0      0.7     0.0     10 ROANOKE     33.000    1  1     -8.9    -3.5                   30    32
                                                                          19 BUS 19      33.000    1  1      6.7     2.8                   46    16
    21 BUS 21      33.000    1 1.0327  -16.1     0.0     17.5     0.0 -----------------------------------------------------------------------------
                             1 34.080            0.0     11.2     0.0     10 ROANOKE     33.000    1  1    -15.7    -9.8
                                                                          22 BUS 22      33.000    1  1     -1.8    -1.4
    22 BUS 22      33.000    1 1.0333  -16.1     0.0      0.0     0.0 -----------------------------------------------------------------------------
                             1 34.098            0.0      0.0     0.0     10 ROANOKE     33.000    1  1     -7.6    -4.5
                                                                          21 BUS 21      33.000    1  1      1.8     1.4
                                                                          24 BUS 24      33.000    1  1      5.7     3.1
    23 BUS 23      33.000    1 1.0272  -16.3     0.0      3.2     0.0 -----------------------------------------------------------------------------
                             1 33.897            0.0      1.6     0.0     15 BUS 15      33.000    1  1     -5.0    -2.8
                                                                          24 BUS 24      33.000    1  1      1.8     1.2
    24 BUS 24      33.000    1 1.0216  -16.5     0.0      8.7     0.0 -----------------------------------------------------------------------------
                             1 33.712            0.0      6.7    -4.5     22 BUS 22      33.000    1  1     -5.7    -3.0
                                                                          23 BUS 23      33.000    1  1     -1.8    -1.2
                                                                          25 BUS 25      33.000    1  1     -1.2     2.0
    25 BUS 25      33.000    1 1.0173  -16.1     0.0      0.0     0.0 -----------------------------------------------------------------------------
                             1 33.572            0.0      0.0     0.0     24 BUS 24      33.000    1  1      1.2    -2.0
                                                                          26 BUS 26      33.000    1  1      3.5     2.4
                                                                          27 CLOVERDL    33.000    1  1     -4.8    -0.4
    26 BUS 26      33.000    1 0.9997  -16.5     0.0      3.5     0.0 -----------------------------------------------------------------------------
                             1 32.989            0.0      2.3     0.0     25 BUS 25      33.000    1  1     -3.5    -2.3

    27 CLOVERDL    33.000    1 1.0232  -15.5     0.0      0.0     0.0 -----------------------------------------------------------------------------
                             1 33.767            0.0      0.0     0.0     25 BUS 25      33.000    1  1      4.8     0.4
                                                                          28 CLOVERDL    132.00    1  1    -18.1    -3.7  1.000UN
                                                                          29 BUS 29      33.000    1  1      6.2     1.7
                                                                          30 BUS 30      33.000    1  1      7.1     1.7                                PTI INTERACTIVE POWER SYSTEM SIMULATOR--PSS(R)E Xplore SUN, FEB 28 2016  23:05
                         08/20/93 UW ARCHIVE           100.0  1961 W IEEE 30 BUS TES     %MVA FOR TRANSFORMERS
                                                                                         %MVA FOR NON-TRANSFORMER BRANCHES

X------- FROM BUS ------X AREA  VOLT            GEN    LOAD    SHUNT  X---------- TO BUS ----------X                        TRANSFORMER     RATING
  BUS# X-- NAME --X BASKV ZONE  PU/KV  ANGLE  MW/MVAR MW/MVAR MW/MVAR   BUS# X-- NAME --X BASKV AREA CKT    MW     MVAR    RATIO   ANGLE   %  SET A

    28 CLOVERDL    132.00    1 1.0068  -11.7     0.0      0.0     0.0 -----------------------------------------------------------------------------
                             1 132.90            0.0      0.0     0.0      6 ROANOKE     132.00    1  1    -18.6    -1.1
                                                                           8 REUSENS     132.00    1  1      0.5    -3.9
                                                                          27 CLOVERDL    33.000    1  1     18.1     5.0  0.968LK
    29 BUS 29      33.000    1 1.0034  -16.8     0.0      2.4     0.0 -----------------------------------------------------------------------------
                             1 33.113            0.0      0.9     0.0     27 CLOVERDL    33.000    1  1     -6.1    -1.5
                                                                          30 BUS 30      33.000    1  1      3.7     0.6
    30 BUS 30      33.000    1 0.9919  -17.7     0.0     10.6     0.0 -----------------------------------------------------------------------------
                             1 32.734            0.0      1.9     0.0     27 CLOVERDL    33.000    1  1     -6.9    -1.4
                                                                          29 BUS 29      33.000    1  1     -3.7    -0.5
